! ************************************************************************
! ************************************************************************
! ******************* For further documentation of mechanism:  ***********
! ******************* see references below and their citations ***********
! ************************************************************************
! ************************************************************************
!
! Hydrocarbon subset
!
! H. Hashemi, J.M. Christensen, S. Gersen, H. Levinsky, S.J. Klippenstein, P. Glarborg, 
! High-Pressure Oxidation of Methane, Combust. Flame 172 (2016) 349-364.
!
! J. Gimenez-Lopez, C.T. Rasmussen, H. Hashemi, M.U. Alzueta, Y. Gao, P. Marshall, C.F. Goldsmith, P. Glarborg, 
! Experimental and Kinetic Modeling Study of C2H2 Oxidation at High Pressure, Int. J. Chem. Kinet. 48 (2016) 724-738. 
! High-Pressure Oxidation of Ethane, Combust. Flame 182 (2017) 150-166.
! 
! 
! Nitrogen subset
!
! P. Glarborg, J.A. Miller, B. Ruscic, S.J. Klippenstein, 
! Modeling Nitrogen Chemistry in Combustion, 
! Prog. Energy Combust. Sci. 67 (2017) 31-68. 
!
!
ELEMENTS
O  H  C   
END  
!
SPECIES    
!
! Glarborg Species
!
OH C4H9O C4H10O2 CH3O
!
END
!
THERMO
CH3O              ATcT3EC   1H   3O   1    0G    200.00   6000.00 1000.00      1
 4.75205127E+00 7.44944105E-03-2.70076415E-06 4.38793486E-10-2.64006093E-14    2
 4.44370836E+02-1.93362162E+00 3.71622806E+00-2.83500602E-03 3.77227316E-05    3
-4.73647579E-08 1.86739253E-11 1.35874167E+03 6.55372649E+00 2.58922342E+03    4
C4H9O                  0C   4H  10O   2    0G    200.000  6000.00 1000.00      1
 1.18087638E+01 2.88804212E-02-1.02314316E-05 1.63677192E-09-9.73772076E-14    2
-5.80862660E+04-3.58110912E+01 7.17250515E+00-5.13210639E-04 1.15998711E-04    3
-1.49438258E-07 5.87774002E-11-5.48361037E+04-1.86674181E+00-5.19631593E+04    4
C4H9O                  0C   4H   9O   1    0G    200.000  6000.00 1000.00      1
 1.21282441E+01 2.43644908E-02-9.02471630E-06 1.47949540E-09-8.93697147E-14    2
-1.29796240E+04-3.75312729E+01 5.61811041E+00 2.13096414E-03 1.02735847E-04    3
-1.34293799E-07 5.26670215E-11-9.21420279E+03 5.86104936E+00-6.77730858E+03    4
!
END
!
REACTIONS
!
! *****************************************************************************
!    Reaction data from Caltech (missing in Glarborg) [1-67, 66]
! *****************************************************************************
!
C4H10O2<=>C4H9O+OH                            3.57E+13     .000        35750.00
END
!
