! ************************************************************************
! ************************************************************************
! ******************* For further documentation of mechanism:  ***********
! ******************* see references below and their citations ***********
! ************************************************************************
! ************************************************************************
!
! Hydrocarbon subset
!
! H. Hashemi, J.M. Christensen, S. Gersen, H. Levinsky, S.J. Klippenstein, P. Glarborg, 
! High-Pressure Oxidation of Methane, Combust. Flame 172 (2016) 349-364.
!
! J. Gimenez-Lopez, C.T. Rasmussen, H. Hashemi, M.U. Alzueta, Y. Gao, P. Marshall, C.F. Goldsmith, P. Glarborg, 
! Experimental and Kinetic Modeling Study of C2H2 Oxidation at High Pressure, Int. J. Chem. Kinet. 48 (2016) 724-738. 
! High-Pressure Oxidation of Ethane, Combust. Flame 182 (2017) 150-166.
! 
! 
! Nitrogen subset
!
! P. Glarborg, J.A. Miller, B. Ruscic, S.J. Klippenstein, 
! Modeling Nitrogen Chemistry in Combustion, 
! Prog. Energy Combust. Sci. 67 (2017) 31-68. 
!
!
ELEMENTS
O  H  C   
END  
!
SPECIES    
!
! Glarborg Species
!
OH C4H9O C4H10O2 CH3O C3H5O
!
END
!
THERMO ALL
0200.00  1000.00  6000.00
! ********************************************************************************
! ********************************************************************************
! ***** N2 AR HE 
! ********************************************************************************
! ********************************************************************************
!
0200.00  1000.00  6000.00
CH3O              ATcT3EC   1H   3O   1    0G    200.00   6000.00 1000.00      1
 4.75205127E+00 7.44944105E-03-2.70076415E-06 4.38793486E-10-2.64006093E-14    2
 4.44370836E+02-1.93362162E+00 3.71622806E+00-2.83500602E-03 3.77227316E-05    3
-4.73647579E-08 1.86739253E-11 1.35874167E+03 6.55372649E+00 2.58922342E+03    4
OH                ATcT3EH   1O   1    0    0G    200.00   6000.00 1000.00      1
 2.84581721E+00 1.09723818E-03-2.89121101E-07 4.09099910E-11-2.31382258E-15    2
 3.71706610E+03 5.80339915E+00 3.97585165E+00-2.28555291E-03 4.33442882E-06    3
-3.59926640E-09 1.26706930E-12 3.39341137E+03-3.55397262E-02 4.50901087E+03    4
C4H9O             ATcT3EC   4H   9O   1    0G    200.00   6000.00 1000.00      1
 8.97401527E+00 2.39704154E-02-8.48703645E-06 1.35644127E-09-8.06234913E-14    2
 5.19161526E+03-2.31075609E+01 4.73737837E+00 9.69051565E-03 6.63846383E-05    3
-9.24799302E-08 3.74006099E-11 7.57382332E+03 4.91063455E+00 9.83838903E+03    4
C4H10O2           ATcT3EC   4H  10O   2    0G    200.00   6000.00 1000.00      1
 8.97401527E+00 2.39704154E-02-8.48703645E-06 1.35644127E-09-8.06234913E-14    2
 5.19161526E+03-2.31075609E+01 4.73737837E+00 9.69051565E-03 6.63846383E-05    3
-9.24799302E-08 3.74006099E-11 7.57382332E+03 4.91063455E+00 9.83838903E+03    4
C3H5O             ATcT3EC   3H   5O   1    0G    200.00   6000.00 1000.00      1
 6.52325448E+00 1.54211952E-02-5.50898157E-06 8.85889862E-10-5.28846399E-14    2
-7.19631634E+03-5.19862218E+00 6.25722402E+00-9.17612184E-03 7.61190493E-05    3
-9.05514997E-08 3.46198215E-11-5.91616484E+03 2.23330599E+00-3.94851891E+03    4
!
END
!
REACTIONS
!
! *****************************************************************************
!    Reaction data from Caltech (missing in Glarborg) [1-67, 66]
! *****************************************************************************
!
C4H10O2<=>C4H9O+OH                            3.57E+13     .000        35750.00

END
!
